Circuit: * U:\Documents\4_GP\TP ELECTRONIQUE ANALOGIQUE\Schéma_solution_Ampli_Transimpédance.asc

Direct Newton iteration for .op point succeeded.

Date: Fri Feb 11 17:47:49 2022
Total elapsed time: 0.390 seconds.

tnom = 27
temp = 27
method = modified trap
totiter = 49564
traniter = 49542
tranpoints = 24772
accept = 15935
rejected = 8837
matrix size = 16
fillins = 5
solver = Normal
Matrix Compiler1: 692 bytes object code size  0.2/0.1/[0.1]
Matrix Compiler2: 1.30 KB object code size  0.1/0.2/[0.1]

