Circuit: * U:\Documents\4_GP\TP ELECTRONIQUE ANALOGIQUE\Schéma_simulation_capteur.asc

