Circuit: * C:\Users\Rémi\Documents\GitHub\2021_2022_CAPTEUR_PEREUR_CUCULIERE\ELECTRONIQUE_ANALOGIQUE_SIMLUATIONS\Schéma_solution_Ampli_Transimpédance.asc

